Circuit: * D:\Facultate\An III\Sem1\Proiect SCIA\Etaj3.asc

Direct Newton iteration failed to find .op point.  (Use ".option noopiter" to skip.)
Starting Gmin stepping
Gmin = 10
Gmin = 1.07374
Gmin = 0.115292
Gmin = 0.0123794
Gmin = 0.00132923
Gmin = 0.000142725
Gmin = 1.5325e-005
Gmin = 1.6455e-006
Gmin = 1.76685e-007
vernier = 0.5
vernier = 0.25
vernier = 0.125
vernier = 0.0625
vernier = 0.03125
vernier = 0.015625
vernier = 0.0078125
Gmin = 1.13078e-007
vernier = 0.00390625
vernier = 0.00520833
Gmin = 1.11944e-007
vernier = 0.00694444
vernier = 0.00925925
Gmin = 1.09987e-007
vernier = 0.0123457
Gmin = 1.06978e-007
vernier = 0.0164609
vernier = 0.0219478
Gmin = 1.02114e-007
vernier = 0.0292638
vernier = 0.0390184
Gmin = 9.48217e-008
vernier = 0.0520245
Gmin = 8.44058e-008
vernier = 0.0693659
vernier = 0.0924879
Gmin = 6.94803e-008
vernier = 0.123317
vernier = 0.164423
Gmin = 5.10384e-008
vernier = 0.21923
Gmin = 3.15412e-008
vernier = 0.292307
vernier = 0.389743
Gmin = 1.42422e-008
vernier = 0.519657
vernier = 0.692876
Gmin = 4.12846e-009
vernier = 0.923834
Gmin = 6.26341e-010
vernier = 1
Gmin = 6.72529e-011
Gmin = 7.22122e-012
Gmin = 7.75373e-013
Gmin = 0
Gmin = 0
Gmin stepping succeeded in finding the operating point.

N-Period=1
Fourier components of V(out3)
DC component:9.38521e-006

Harmonic	Frequency	 Fourier 	Normalized	 Phase  	Normalized
 Number 	  [Hz]   	Component	 Component	[degree]	Phase [deg]
    1   	1.730e+03	1.165e+00	1.000e+00	   -0.02°	    0.00°
    2   	3.460e+03	4.962e-05	4.258e-05	  127.48°	  127.50°
    3   	5.190e+03	5.840e-04	5.012e-04	   56.50°	   56.52°
    4   	6.920e+03	1.090e-04	9.353e-05	    3.25°	    3.27°
    5   	8.650e+03	5.007e-04	4.297e-04	 -118.89°	 -118.86°
    6   	1.038e+04	1.206e-04	1.035e-04	 -133.87°	 -133.85°
    7   	1.211e+04	5.210e-04	4.471e-04	   -4.64°	   -4.61°
    8   	1.384e+04	4.836e-06	4.150e-06	  139.72°	  139.75°
    9   	1.557e+04	7.911e-04	6.789e-04	  136.63°	  136.65°
   10   	1.730e+04	5.906e-05	5.069e-05	  120.38°	  120.40°
Total Harmonic Distortion: 0.105853%(0.115944%)



Date: Wed Jan 17 21:44:58 2024
Total elapsed time: 0.389 seconds.

tnom = 27
temp = 27
method = modified trap
totiter = 3643
traniter = 2136
tranpoints = 1069
accept = 1063
rejected = 6
matrix size = 78
fillins = 67
solver = Normal
Thread vector: 8.8/5.9[3] 2.8/2.4[3] 3.3/2.5[3] 0.2/0.9[1]  2592/500
Matrix Compiler1: 7.31 KB object code size  1.7/0.7/[0.4]
Matrix Compiler2: 9.43 KB object code size  1.7/1.4/[0.5]

